Caffeine
  KherveMol

 24 25  0  0  0  0  0  0  0  0999 V2000
    3.2730   -0.0020   -0.7496 C   0  0  0  0  0  0  0  0  0  0  0  0
    2.1877   -0.0154    0.2035 N   0  0  0  0  0  0  0  0  0  0  0  0
    2.3369   -0.0432    1.5862 C   0  0  0  0  0  0  0  0  0  0  0  0
    1.0733   -0.0109    2.2107 N   0  0  0  0  0  0  0  0  0  0  0  0
    0.1406    0.0486    1.1841 C   0  0  0  0  0  0  0  0  0  0  0  0
    0.8483    0.0547   -0.0817 C   0  0  0  0  0  0  0  0  0  0  0  0
    0.1153   -0.0191   -1.2561 C   0  0  0  0  0  0  0  0  0  0  0  0
    0.6602   -0.0006   -2.3671 O   0  0  0  0  0  0  0  0  0  0  0  0
   -1.2611   -0.0054   -1.1909 N   0  0  0  0  0  0  0  0  0  0  0  0
   -2.0367   -0.0010   -2.4405 C   0  0  0  0  0  0  0  0  0  0  0  0
   -1.9006   -0.0041    0.0127 C   0  0  0  0  0  0  0  0  0  0  0  0
   -3.1382   -0.0001    0.0530 O   0  0  0  0  0  0  0  0  0  0  0  0
   -1.1978   -0.0116    1.1961 N   0  0  0  0  0  0  0  0  0  0  0  0
   -1.9503   -0.0031    2.4644 C   0  0  0  0  0  0  0  0  0  0  0  0
    4.2223    0.0003   -0.2445 H   0  0  0  0  0  0  0  0  0  0  0  0
    3.2299   -0.8712   -1.3825 H   0  0  0  0  0  0  0  0  0  0  0  0
    3.2205    0.8719   -1.3740 H   0  0  0  0  0  0  0  0  0  0  0  0
    3.2399    0.0168    2.1033 H   0  0  0  0  0  0  0  0  0  0  0  0
   -3.0816   -0.0002   -2.2113 H   0  0  0  0  0  0  0  0  0  0  0  0
   -1.7945    0.8735   -3.0072 H   0  0  0  0  0  0  0  0  0  0  0  0
   -1.7966   -0.8738   -3.0110 H   0  0  0  0  0  0  0  0  0  0  0  0
   -1.2622   -0.0013    3.2825 H   0  0  0  0  0  0  0  0  0  0  0  0
   -2.5620    0.8726    2.5065 H   0  0  0  0  0  0  0  0  0  0  0  0
   -2.5664   -0.8754    2.5136 H   0  0  0  0  0  0  0  0  0  0  0  0
  1  2  1  0
  2  3  1  0
  3  4  2  0
  4  5  1  0
  5  6  2  0
  2  6  1  0
  6  7  1  0
  7  8  2  0
  7  9  1  0
  9 10  1  0
  9 11  1  0
 11 12  2  0
 11 13  1  0
  5 13  1  0
 13 14  1  0
  1 15  1  0
  1 16  1  0
  1 17  1  0
  3 18  1  0
 10 19  1  0
 10 20  1  0
 10 21  1  0
 14 22  1  0
 14 23  1  0
 14 24  1  0
M  END
$$$$
